L6/1726518/Chaves.dss
! ==========================================================
! CHAVES — geradas de UNSEMT (Line com Switch=Y)
! ==========================================================
! 22 chave(s) omitida(s): os dois PACs fora da rede de MT deste alimentador, o que criaria ilha flutuante — ex.: 339308330, 346231183, 209036770
New Line.1950360613 Phases=1 Bus1=node_2267528387.2 Bus2=node_2267528428.2 Switch=Y r1=1e-4 x1=1e-4 r0=1e-4 x0=1e-4 normamps=9999
New Line.1800388377 Phases=1 Bus1=node_2124250572.1 Bus2=node_2124250573.1 Switch=Y r1=1e-4 x1=1e-4 r0=1e-4 x0=1e-4 normamps=9999
New Line.346583504 Phases=1 Bus1=node_2387687407.2 Bus2=node_2387687713.2 Switch=Y r1=1e-4 x1=1e-4 r0=1e-4 x0=1e-4 normamps=9999
New Line.348074367 Phases=3 Bus1=100_348074315.1.2.3 Bus2=100_348074376.1.2.3 Switch=Y r1=1e-4 x1=1e-4 r0=1e-4 x0=1e-4 normamps=9999
New Line.1902383770 Phases=1 Bus1=node_2221732948.2 Bus2=node_2221732972.2 Switch=Y r1=1e-4 x1=1e-4 r0=1e-4 x0=1e-4 normamps=9999
New Line.1807456268 Phases=1 Bus1=node_430466627.3 Bus2=node_2131103694.3 Switch=Y r1=1e-4 x1=1e-4 r0=1e-4 x0=1e-4 normamps=9999
New Line.1876542476 Phases=1 Bus1=node_2197360197.2 Bus2=node_2197360196.2 Switch=Y r1=1e-4 x1=1e-4 r0=1e-4 x0=1e-4 normamps=9999
New Line.340792688 Phases=3 Bus1=node_534591791.1.2.3 Bus2=node_534591792.1.2.3 Switch=Y r1=1e-4 x1=1e-4 r0=1e-4 x0=1e-4 normamps=9999
New Line.346233296 Phases=1 Bus1=node_540488680.2 Bus2=node_540488681.2 Switch=Y r1=1e-4 x1=1e-4 r0=1e-4 x0=1e-4 normamps=9999
New Line.1898351718 Phases=3 Bus1=node_2217915581.1.2.3 Bus2=node_2217915595.1.2.3 Switch=Y r1=1e-4 x1=1e-4 r0=1e-4 x0=1e-4 normamps=9999
New Line.339309422 Phases=3 Bus1=node_533583411.1.2.3 Bus2=node_533583410.1.2.3 Switch=Y r1=1e-4 x1=1e-4 r0=1e-4 x0=1e-4 normamps=9999
New Line.348074358 Phases=3 Bus1=100_348074376.1.2.3 Bus2=segm_348074377.1.2.3 Switch=Y r1=1e-4 x1=1e-4 r0=1e-4 x0=1e-4 normamps=9999
New Line.1807430894 Phases=1 Bus1=node_2131078763.1 Bus2=node_2131078764.1 Switch=Y r1=1e-4 x1=1e-4 r0=1e-4 x0=1e-4 normamps=9999
New Line.1826311241 Phases=1 Bus1=node_2148979616.3 Bus2=node_2148979685.3 Switch=Y r1=1e-4 x1=1e-4 r0=1e-4 x0=1e-4 normamps=9999
New Line.351572042 Phases=3 Bus1=100_351572011.1.2.3 Bus2=100_351572032.1.2.3 Switch=Y r1=1e-4 x1=1e-4 r0=1e-4 x0=1e-4 normamps=9999
New Line.346512909 Phases=1 Bus1=node_540821885.1 Bus2=node_540821886.1 Switch=Y r1=1e-4 x1=1e-4 r0=1e-4 x0=1e-4 normamps=9999
New Line.1855312918 Phases=1 Bus1=node_2176216512.3 Bus2=node_2176216511.3 Switch=Y r1=1e-4 x1=1e-4 r0=1e-4 x0=1e-4 normamps=9999
New Line.1759449443 Phases=1 Bus1=node_2084844601.2 Bus2=node_2084844708.2 Switch=Y r1=1e-4 x1=1e-4 r0=1e-4 x0=1e-4 normamps=9999
New Line.1814403974 Phases=1 Bus1=node_2137879621.2 Bus2=node_2137879661.2 Switch=Y r1=1e-4 x1=1e-4 r0=1e-4 x0=1e-4 normamps=9999
New Line.1821725306 Phases=1 Bus1=node_2144827420.1 Bus2=node_2144827488.1 Switch=Y r1=1e-4 x1=1e-4 r0=1e-4 x0=1e-4 normamps=9999
New Line.1888183594 Phases=1 Bus1=node_2209675618.1 Bus2=node_2209675649.1 Switch=Y r1=1e-4 x1=1e-4 r0=1e-4 x0=1e-4 normamps=9999
New Line.342060787 Phases=3 Bus1=node_535534748.1.2.3 Bus2=node_535534749.1.2.3 Switch=Y r1=1e-4 x1=1e-4 r0=1e-4 x0=1e-4 normamps=9999
New Line.1835985648 Phases=1 Bus1=node_2204535425.1 Bus2=node_2204535476.1 Switch=Y r1=1e-4 x1=1e-4 r0=1e-4 x0=1e-4 normamps=9999
New Line.1898351725 Phases=3 Bus1=node_2217915531.1.2.3 Bus2=node_2217915605.1.2.3 Switch=Y r1=1e-4 x1=1e-4 r0=1e-4 x0=1e-4 normamps=9999
New Line.348074343 Phases=3 Bus1=100_348074315.1.2.3 Bus2=segm_348074316.1.2.3 Switch=Y r1=1e-4 x1=1e-4 r0=1e-4 x0=1e-4 normamps=9999
New Line.1938135618 Phases=1 Bus1=node_2255260556.1 Bus2=node_2255260536.1 Switch=Y r1=1e-4 x1=1e-4 r0=1e-4 x0=1e-4 normamps=9999
New Line.1953091634 Phases=1 Bus1=node_2269679690.1 Bus2=node_2269679770.1 Switch=Y r1=1e-4 x1=1e-4 r0=1e-4 x0=1e-4 normamps=9999
New Line.1953563945 Phases=1 Bus1=node_2270847676.1 Bus2=node_2270847725.1 Switch=Y r1=1e-4 x1=1e-4 r0=1e-4 x0=1e-4 normamps=9999
New Line.1801347233 Phases=1 Bus1=node_2125102184.2 Bus2=node_2125102387.2 Switch=Y r1=1e-4 x1=1e-4 r0=1e-4 x0=1e-4 normamps=9999
New Line.1974596021 Phases=1 Bus1=node_2246363411.3 Bus2=node_2296053357.3 Switch=Y r1=1e-4 x1=1e-4 r0=1e-4 x0=1e-4 normamps=9999
New Line.1855343571 Phases=1 Bus1=node_2127364731.1 Bus2=node_2127364732.1 Switch=Y r1=1e-4 x1=1e-4 r0=1e-4 x0=1e-4 normamps=9999
New Line.1922767415 Phases=1 Bus1=node_2239965316.2 Bus2=node_2239965374.2 Switch=Y r1=1e-4 x1=1e-4 r0=1e-4 x0=1e-4 normamps=9999
New Line.1784165643 Phases=1 Bus1=node_2109200021.2 Bus2=node_2109200077.2 Switch=Y r1=1e-4 x1=1e-4 r0=1e-4 x0=1e-4 normamps=9999
New Line.1847012842 Phases=1 Bus1=node_2168930019.2 Bus2=node_2168930117.2 Switch=Y r1=1e-4 x1=1e-4 r0=1e-4 x0=1e-4 normamps=9999
New Line.1800242659 Phases=1 Bus1=node_2124130787.2 Bus2=node_2124130925.2 Switch=Y r1=1e-4 x1=1e-4 r0=1e-4 x0=1e-4 normamps=9999
New Line.1810547991 Phases=1 Bus1=node_2134213474.2 Bus2=node_2134213475.2 Switch=Y r1=1e-4 x1=1e-4 r0=1e-4 x0=1e-4 normamps=9999
New Line.1798297280 Phases=1 Bus1=node_2122361397.3 Bus2=node_2122361630.3 Switch=Y r1=1e-4 x1=1e-4 r0=1e-4 x0=1e-4 normamps=9999
New Line.1811668676 Phases=1 Bus1=node_443916118.2 Bus2=node_2135264532.2 Switch=Y r1=1e-4 x1=1e-4 r0=1e-4 x0=1e-4 normamps=9999
New Line.2215455149 Phases=1 Bus1=node_2494861626.2 Bus2=node_2494861753.2 Switch=Y r1=1e-4 x1=1e-4 r0=1e-4 x0=1e-4 normamps=9999
New Line.999227063 Phases=3 Bus1=100_999227081.1.2.3 Bus2=100_999227080.1.2.3 Switch=Y r1=1e-4 x1=1e-4 r0=1e-4 x0=1e-4 normamps=9999
New Line.346346114 Phases=1 Bus1=node_439064946.2 Bus2=node_2473807854.2 Switch=Y r1=1e-4 x1=1e-4 r0=1e-4 x0=1e-4 normamps=9999
New Line.346470353 Phases=1 Bus1=node_2432976414.2 Bus2=node_2432976138.2 Switch=Y r1=1e-4 x1=1e-4 r0=1e-4 x0=1e-4 normamps=9999
New Line.2268563193 Phases=1 Bus1=node_2479184882.2 Bus2=node_2479184982.2 Switch=Y r1=1e-4 x1=1e-4 r0=1e-4 x0=1e-4 normamps=9999
New Line.2166477973 Phases=1 Bus1=node_429162604.1 Bus2=node_2474619935.1 Switch=Y r1=1e-4 x1=1e-4 r0=1e-4 x0=1e-4 normamps=9999
New Line.2191211234 Phases=1 Bus1=node_2239888009.1 Bus2=node_2496905433.1 Switch=Y r1=1e-4 x1=1e-4 r0=1e-4 x0=1e-4 normamps=9999
New Line.2225146533 Phases=1 Bus1=node_431269377.2 Bus2=node_2530969565.2 Switch=Y r1=1e-4 x1=1e-4 r0=1e-4 x0=1e-4 normamps=9999
New Line.2107448304 Phases=1 Bus1=node_2385158531.3 Bus2=node_2385158951.3 Switch=Y r1=1e-4 x1=1e-4 r0=1e-4 x0=1e-4 normamps=9999
New Line.2293893498 Phases=1 Bus1=node_2552336480.2 Bus2=node_2552336587.2 Switch=Y r1=1e-4 x1=1e-4 r0=1e-4 x0=1e-4 normamps=9999
New Line.2268631901 Phases=1 Bus1=node_433779314.1 Bus2=node_2522244408.1 Switch=Y r1=1e-4 x1=1e-4 r0=1e-4 x0=1e-4 normamps=9999
New Line.2217623544 Phases=1 Bus1=node_443801606.1 Bus2=node_2522995823.1 Switch=Y r1=1e-4 x1=1e-4 r0=1e-4 x0=1e-4 normamps=9999
New Line.1392055846 Phases=1 Bus1=100_1392055864.2 Bus2=100_1392055865.2 Switch=Y r1=1e-4 x1=1e-4 r0=1e-4 x0=1e-4 normamps=9999
New Line.347887506 Phases=1 Bus1=100_347887520.1 Bus2=100_347887519.1 Switch=Y r1=1e-4 x1=1e-4 r0=1e-4 x0=1e-4 normamps=9999
New Line.1377708770 Phases=1 Bus1=100_1377708801.1 Bus2=100_1377708800.1 Switch=Y r1=1e-4 x1=1e-4 r0=1e-4 x0=1e-4 normamps=9999
New Line.1319567699 Phases=1 Bus1=100_1319567729.1 Bus2=100_1319567730.1 Switch=Y r1=1e-4 x1=1e-4 r0=1e-4 x0=1e-4 normamps=9999
New Line.1423963495 Phases=1 Bus1=node_1720494338.1 Bus2=node_1720494480.1 Switch=Y r1=1e-4 x1=1e-4 r0=1e-4 x0=1e-4 normamps=9999
New Line.1359807155 Phases=1 Bus1=100_1359807185.1 Bus2=100_1359807186.1 Switch=Y r1=1e-4 x1=1e-4 r0=1e-4 x0=1e-4 normamps=9999
New Line.1373805575 Phases=1 Bus1=100_1373805606.2 Bus2=100_1373805605.2 Switch=Y r1=1e-4 x1=1e-4 r0=1e-4 x0=1e-4 normamps=9999
New Line.347826618 Phases=1 Bus1=100_347826632.1 Bus2=100_347826631.1 Switch=Y r1=1e-4 x1=1e-4 r0=1e-4 x0=1e-4 normamps=9999
New Line.1344850854 Phases=1 Bus1=node_433578107.1 Bus2=node_1697126405.1 Switch=Y r1=1e-4 x1=1e-4 r0=1e-4 x0=1e-4 normamps=9999
New Line.1404434634 Phases=1 Bus1=node_1700295895.3 Bus2=node_1700295896.3 Switch=Y r1=1e-4 x1=1e-4 r0=1e-4 x0=1e-4 normamps=9999
New Line.1108650696 Phases=1 Bus1=100_1108650714.1 Bus2=100_1108650715.1 Switch=Y r1=1e-4 x1=1e-4 r0=1e-4 x0=1e-4 normamps=9999
New Line.339307730 Phases=1 Bus1=node_533450507.3 Bus2=node_533450508.3 Switch=Y r1=1e-4 x1=1e-4 r0=1e-4 x0=1e-4 normamps=9999
New Line.1332866567 Phases=1 Bus1=100_1332866597.1 Bus2=100_1332866598.1 Switch=Y r1=1e-4 x1=1e-4 r0=1e-4 x0=1e-4 normamps=9999
New Line.1379465993 Phases=1 Bus1=100_1379466011.2 Bus2=100_1379466012.2 Switch=Y r1=1e-4 x1=1e-4 r0=1e-4 x0=1e-4 normamps=9999
New Line.1382882740 Phases=1 Bus1=100_1363427016.1 Bus2=100_1363427015.1 Switch=Y r1=1e-4 x1=1e-4 r0=1e-4 x0=1e-4 normamps=9999
New Line.1350566155 Phases=1 Bus1=100_1350566173.1 Bus2=100_1350566174.1 Switch=Y r1=1e-4 x1=1e-4 r0=1e-4 x0=1e-4 normamps=9999
New Line.347826350 Phases=1 Bus1=100_347826363.2 Bus2=100_347826364.2 Switch=Y r1=1e-4 x1=1e-4 r0=1e-4 x0=1e-4 normamps=9999
New Line.1318614437 Phases=1 Bus1=node_1615806500.2 Bus2=node_1615806535.2 Switch=Y r1=1e-4 x1=1e-4 r0=1e-4 x0=1e-4 normamps=9999
New Line.1398384071 Phases=1 Bus1=100_1398384089.2 Bus2=100_1398384090.2 Switch=Y r1=1e-4 x1=1e-4 r0=1e-4 x0=1e-4 normamps=9999
New Line.1327649077 Phases=1 Bus1=100_1327649104.2 Bus2=100_1327649103.2 Switch=Y r1=1e-4 x1=1e-4 r0=1e-4 x0=1e-4 normamps=9999
New Line.1421429955 Phases=1 Bus1=100_1421429986.3 Bus2=100_1421429985.3 Switch=Y r1=1e-4 x1=1e-4 r0=1e-4 x0=1e-4 normamps=9999
New Line.347825440 Phases=1 Bus1=100_347825453.1 Bus2=100_347825454.1 Switch=Y r1=1e-4 x1=1e-4 r0=1e-4 x0=1e-4 normamps=9999
New Line.1419463420 Phases=1 Bus1=100_2142796202.2 Bus2=100_2142796203.2 Switch=Y r1=1e-4 x1=1e-4 r0=1e-4 x0=1e-4 normamps=9999
New Line.1121910739 Phases=1 Bus1=node_1391307803.1 Bus2=node_1391307896.1 Switch=Y r1=1e-4 x1=1e-4 r0=1e-4 x0=1e-4 normamps=9999
New Line.1377450922 Phases=1 Bus1=node_1672195458.3 Bus2=node_1672195494.3 Switch=Y r1=1e-4 x1=1e-4 r0=1e-4 x0=1e-4 normamps=9999
New Line.1422048296 Phases=1 Bus1=100_1422048326.1 Bus2=100_1422048327.1 Switch=Y r1=1e-4 x1=1e-4 r0=1e-4 x0=1e-4 normamps=9999
New Line.1363680274 Phases=1 Bus1=node_2715502241.2 Bus2=node_2715502242.2 Switch=Y r1=1e-4 x1=1e-4 r0=1e-4 x0=1e-4 normamps=9999
New Line.1408749943 Phases=1 Bus1=node_1705624277.2 Bus2=node_1705624298.2 Switch=Y r1=1e-4 x1=1e-4 r0=1e-4 x0=1e-4 normamps=9999
New Line.1375458545 Phases=1 Bus1=100_1375458563.2 Bus2=100_1375458564.2 Switch=Y r1=1e-4 x1=1e-4 r0=1e-4 x0=1e-4 normamps=9999
New Line.1421524590 Phases=1 Bus1=100_1421524609.2 Bus2=100_1421524608.2 Switch=Y r1=1e-4 x1=1e-4 r0=1e-4 x0=1e-4 normamps=9999
New Line.1378176637 Phases=1 Bus1=node_1672938400.1 Bus2=node_1672938465.1 Switch=Y r1=1e-4 x1=1e-4 r0=1e-4 x0=1e-4 normamps=9999
New Line.1133607433 Phases=1 Bus1=100_1133607460.1 Bus2=100_1133607459.1 Switch=Y r1=1e-4 x1=1e-4 r0=1e-4 x0=1e-4 normamps=9999
New Line.1340995031 Phases=1 Bus1=100_1340995049.2 Bus2=100_1340995050.2 Switch=Y r1=1e-4 x1=1e-4 r0=1e-4 x0=1e-4 normamps=9999
New Line.347887372 Phases=1 Bus1=100_347887386.3 Bus2=100_347887385.3 Switch=Y r1=1e-4 x1=1e-4 r0=1e-4 x0=1e-4 normamps=9999
New Line.1318078132 Phases=1 Bus1=node_436870664.2 Bus2=node_1615326377.2 Switch=Y r1=1e-4 x1=1e-4 r0=1e-4 x0=1e-4 normamps=9999
New Line.1192100338 Phases=1 Bus1=node_1490954231.2 Bus2=node_1490954254.2 Switch=Y r1=1e-4 x1=1e-4 r0=1e-4 x0=1e-4 normamps=9999
New Line.1369249317 Phases=1 Bus1=node_1663942331.2 Bus2=node_1663942332.2 Switch=Y r1=1e-4 x1=1e-4 r0=1e-4 x0=1e-4 normamps=9999
New Line.1359179854 Phases=1 Bus1=100_1359179880.3 Bus2=100_1359179881.3 Switch=Y r1=1e-4 x1=1e-4 r0=1e-4 x0=1e-4 normamps=9999
New Line.1002230604 Phases=1 Bus1=100_1002230623.3 Bus2=100_1002230622.3 Switch=Y r1=1e-4 x1=1e-4 r0=1e-4 x0=1e-4 normamps=9999
New Line.347825710 Phases=1 Bus1=100_1341832727.2 Bus2=100_1341832726.2 Switch=Y r1=1e-4 x1=1e-4 r0=1e-4 x0=1e-4 normamps=9999
New Line.1337130927 Phases=1 Bus1=100_1337130957.3 Bus2=100_1337130958.3 Switch=Y r1=1e-4 x1=1e-4 r0=1e-4 x0=1e-4 normamps=9999
New Line.1405963173 Phases=1 Bus1=100_1405963203.3 Bus2=100_1405963204.3 Switch=Y r1=1e-4 x1=1e-4 r0=1e-4 x0=1e-4 normamps=9999
New Line.1449147864 Phases=1 Bus1=node_1745507081.1 Bus2=node_1745507133.1 Switch=Y r1=1e-4 x1=1e-4 r0=1e-4 x0=1e-4 normamps=9999
New Line.1416947590 Phases=3 Bus1=node_1714092519.1.2.3 Bus2=node_424145444.1.2.3 Switch=Y r1=1e-4 x1=1e-4 r0=1e-4 x0=1e-4 normamps=9999
New Line.1377566744 Phases=1 Bus1=100_1377566774.3 Bus2=100_1377566775.3 Switch=Y r1=1e-4 x1=1e-4 r0=1e-4 x0=1e-4 normamps=9999
New Line.1322779709 Phases=1 Bus1=node_1619808672.1 Bus2=node_1619808718.1 Switch=Y r1=1e-4 x1=1e-4 r0=1e-4 x0=1e-4 normamps=9999
New Line.1445910094 Phases=1 Bus1=node_1742208970.3 Bus2=node_1742209068.3 Switch=Y r1=1e-4 x1=1e-4 r0=1e-4 x0=1e-4 normamps=9999
New Line.1318301184 Phases=1 Bus1=100_1318301203.2 Bus2=100_1318301202.2 Switch=Y r1=1e-4 x1=1e-4 r0=1e-4 x0=1e-4 normamps=9999
New Line.1352734688 Phases=1 Bus1=100_1352734719.1 Bus2=100_1352734718.1 Switch=Y r1=1e-4 x1=1e-4 r0=1e-4 x0=1e-4 normamps=9999
New Line.1452106307 Phases=1 Bus1=100_1452106338.1 Bus2=100_1452106337.1 Switch=Y r1=1e-4 x1=1e-4 r0=1e-4 x0=1e-4 normamps=9999
New Line.1434969024 Phases=1 Bus1=100_1434969055.1 Bus2=100_1434969054.1 Switch=Y r1=1e-4 x1=1e-4 r0=1e-4 x0=1e-4 normamps=9999
New Line.1291132842 Phases=1 Bus1=node_1589557286.1 Bus2=node_1589557346.1 Switch=Y r1=1e-4 x1=1e-4 r0=1e-4 x0=1e-4 normamps=9999
New Line.1382747662 Phases=1 Bus1=node_1677607402.2 Bus2=node_1677607432.2 Switch=Y r1=1e-4 x1=1e-4 r0=1e-4 x0=1e-4 normamps=9999
New Line.1448009852 Phases=1 Bus1=node_1744304491.1 Bus2=node_1744304530.1 Switch=Y r1=1e-4 x1=1e-4 r0=1e-4 x0=1e-4 normamps=9999
New Line.1204527207 Phases=1 Bus1=node_1503303692.3 Bus2=node_1503303907.3 Switch=Y r1=1e-4 x1=1e-4 r0=1e-4 x0=1e-4 normamps=9999
New Line.1334356232 Phases=1 Bus1=node_427473028.3 Bus2=node_1629852206.3 Switch=Y r1=1e-4 x1=1e-4 r0=1e-4 x0=1e-4 normamps=9999
New Line.1374818694 Phases=1 Bus1=node_1669554548.2 Bus2=node_1669554764.2 Switch=Y r1=1e-4 x1=1e-4 r0=1e-4 x0=1e-4 normamps=9999
New Line.1379993160 Phases=1 Bus1=node_1674840869.2 Bus2=node_1674840897.2 Switch=Y r1=1e-4 x1=1e-4 r0=1e-4 x0=1e-4 normamps=9999
New Line.1437798699 Phases=1 Bus1=node_437250024.2 Bus2=node_1734106228.2 Switch=Y r1=1e-4 x1=1e-4 r0=1e-4 x0=1e-4 normamps=9999
New Line.1448005564 Phases=1 Bus1=node_2131078617.1 Bus2=node_1744300282.1 Switch=Y r1=1e-4 x1=1e-4 r0=1e-4 x0=1e-4 normamps=9999
New Line.1433715256 Phases=1 Bus1=node_1729894015.1 Bus2=node_1729894120.1 Switch=Y r1=1e-4 x1=1e-4 r0=1e-4 x0=1e-4 normamps=9999
New Line.1132967822 Phases=1 Bus1=node_1402506569.3 Bus2=node_1402506668.3 Switch=Y r1=1e-4 x1=1e-4 r0=1e-4 x0=1e-4 normamps=9999
New Line.1334356266 Phases=1 Bus1=node_1629852263.3 Bus2=node_1629852299.3 Switch=Y r1=1e-4 x1=1e-4 r0=1e-4 x0=1e-4 normamps=9999
New Line.1394455063 Phases=1 Bus1=node_1689388487.1 Bus2=node_1689388510.1 Switch=Y r1=1e-4 x1=1e-4 r0=1e-4 x0=1e-4 normamps=9999
New Line.1404627541 Phases=1 Bus1=node_1700544300.1 Bus2=node_1700544320.1 Switch=Y r1=1e-4 x1=1e-4 r0=1e-4 x0=1e-4 normamps=9999
New Line.1427033646 Phases=1 Bus1=node_1723555906.2 Bus2=node_1723555927.2 Switch=Y r1=1e-4 x1=1e-4 r0=1e-4 x0=1e-4 normamps=9999
New Line.1433925697 Phases=1 Bus1=100_1433925716.2 Bus2=100_1433925715.2 Switch=Y r1=1e-4 x1=1e-4 r0=1e-4 x0=1e-4 normamps=9999
New Line.1464206780 Phases=1 Bus1=100_1464206811.3 Bus2=100_1464206810.3 Switch=Y r1=1e-4 x1=1e-4 r0=1e-4 x0=1e-4 normamps=9999
New Line.1361146940 Phases=1 Bus1=100_1361146970.1 Bus2=100_1361146971.1 Switch=Y r1=1e-4 x1=1e-4 r0=1e-4 x0=1e-4 normamps=9999
New Line.1449152201 Phases=1 Bus1=node_1745515683.2 Bus2=node_1745515794.2 Switch=Y r1=1e-4 x1=1e-4 r0=1e-4 x0=1e-4 normamps=9999
New Line.1442453422 Phases=1 Bus1=node_1738739823.3 Bus2=node_1738739824.3 Switch=Y r1=1e-4 x1=1e-4 r0=1e-4 x0=1e-4 normamps=9999
New Line.1445910033 Phases=1 Bus1=node_430778497.3 Bus2=node_1742208917.3 Switch=Y r1=1e-4 x1=1e-4 r0=1e-4 x0=1e-4 normamps=9999
New Line.347825500 Phases=1 Bus1=100_347825514.2 Bus2=100_347825513.2 Switch=Y r1=1e-4 x1=1e-4 r0=1e-4 x0=1e-4 normamps=9999
New Line.1083732819 Phases=1 Bus1=node_1351000144.3 Bus2=node_1351000200.3 Switch=Y r1=1e-4 x1=1e-4 r0=1e-4 x0=1e-4 normamps=9999
New Line.1346190540 Phases=1 Bus1=node_1640471289.1 Bus2=node_1640471381.1 Switch=Y r1=1e-4 x1=1e-4 r0=1e-4 x0=1e-4 normamps=9999
New Line.1356221369 Phases=1 Bus1=node_1650180214.1 Bus2=node_1650180235.1 Switch=Y r1=1e-4 x1=1e-4 r0=1e-4 x0=1e-4 normamps=9999
New Line.1324016342 Phases=1 Bus1=node_1620800511.1 Bus2=node_1620800588.1 Switch=Y r1=1e-4 x1=1e-4 r0=1e-4 x0=1e-4 normamps=9999
New Line.1440654256 Phases=1 Bus1=node_1736953299.2 Bus2=node_1736953381.2 Switch=Y r1=1e-4 x1=1e-4 r0=1e-4 x0=1e-4 normamps=9999
New Line.1379410281 Phases=1 Bus1=100_1379410299.2 Bus2=100_1379410300.2 Switch=Y r1=1e-4 x1=1e-4 r0=1e-4 x0=1e-4 normamps=9999
New Line.1435110681 Phases=1 Bus1=node_1731426734.3 Bus2=node_1731426870.3 Switch=Y r1=1e-4 x1=1e-4 r0=1e-4 x0=1e-4 normamps=9999
New Line.1441963982 Phases=1 Bus1=node_2738546744.3 Bus2=node_1738246078.3 Switch=Y r1=1e-4 x1=1e-4 r0=1e-4 x0=1e-4 normamps=9999
New Line.347889236 Phases=1 Bus1=100_347889249.3 Bus2=100_347889250.3 Switch=Y r1=1e-4 x1=1e-4 r0=1e-4 x0=1e-4 normamps=9999
New Line.1368476466 Phases=1 Bus1=100_1368476484.2 Bus2=100_1368476485.2 Switch=Y r1=1e-4 x1=1e-4 r0=1e-4 x0=1e-4 normamps=9999
New Line.346833857 Phases=1 Bus1=node_541645777.3 Bus2=node_541645778.3 Switch=Y r1=1e-4 x1=1e-4 r0=1e-4 x0=1e-4 normamps=9999
New Line.1317244777 Phases=1 Bus1=100_1317244795.1 Bus2=100_1317244796.1 Switch=Y r1=1e-4 x1=1e-4 r0=1e-4 x0=1e-4 normamps=9999
New Line.1343614320 Phases=1 Bus1=node_1695181481.2 Bus2=node_1695181551.2 Switch=Y r1=1e-4 x1=1e-4 r0=1e-4 x0=1e-4 normamps=9999
New Line.1412631592 Phases=1 Bus1=node_1709900910.1 Bus2=node_1709901049.1 Switch=Y r1=1e-4 x1=1e-4 r0=1e-4 x0=1e-4 normamps=9999
New Line.1202285718 Phases=1 Bus1=node_1501332831.3 Bus2=node_2707831131.3 Switch=Y r1=1e-4 x1=1e-4 r0=1e-4 x0=1e-4 normamps=9999
New Line.1360923245 Phases=1 Bus1=node_1655646280.1 Bus2=node_1655646335.1 Switch=Y r1=1e-4 x1=1e-4 r0=1e-4 x0=1e-4 normamps=9999
New Line.346434727 Phases=1 Bus1=node_540610624.1 Bus2=node_540610625.1 Switch=Y r1=1e-4 x1=1e-4 r0=1e-4 x0=1e-4 normamps=9999
New Line.1444038074 Phases=1 Bus1=node_1740354439.2 Bus2=node_1740354440.2 Switch=Y r1=1e-4 x1=1e-4 r0=1e-4 x0=1e-4 normamps=9999
New Line.1343889047 Phases=1 Bus1=node_1638165618.1 Bus2=node_1638165668.1 Switch=Y r1=1e-4 x1=1e-4 r0=1e-4 x0=1e-4 normamps=9999
New Line.1438009096 Phases=1 Bus1=100_1438009126.3 Bus2=100_1438009127.3 Switch=Y r1=1e-4 x1=1e-4 r0=1e-4 x0=1e-4 normamps=9999
New Line.1426183468 Phases=1 Bus1=node_1722615473.1 Bus2=node_1722615571.1 Switch=Y r1=1e-4 x1=1e-4 r0=1e-4 x0=1e-4 normamps=9999
New Line.1420700071 Phases=1 Bus1=node_1717295348.1 Bus2=node_1717295386.1 Switch=Y r1=1e-4 x1=1e-4 r0=1e-4 x0=1e-4 normamps=9999
New Line.1428477689 Phases=1 Bus1=node_1725073145.3 Bus2=node_1725072055.3 Switch=Y r1=1e-4 x1=1e-4 r0=1e-4 x0=1e-4 normamps=9999
New Line.1466620211 Phases=1 Bus1=node_1764302111.2 Bus2=node_1764302112.2 Switch=Y r1=1e-4 x1=1e-4 r0=1e-4 x0=1e-4 normamps=9999
New Line.1458092136 Phases=1 Bus1=100_1458092154.2 Bus2=100_1458092155.2 Switch=Y r1=1e-4 x1=1e-4 r0=1e-4 x0=1e-4 normamps=9999
New Line.1463652859 Phases=1 Bus1=100_1463652878.2 Bus2=100_1463652877.2 Switch=Y r1=1e-4 x1=1e-4 r0=1e-4 x0=1e-4 normamps=9999
New Line.351753217 Phases=1 Bus1=100_351753230.2 Bus2=100_351753231.2 Switch=Y r1=1e-4 x1=1e-4 r0=1e-4 x0=1e-4 normamps=9999
New Line.1473378814 Phases=1 Bus1=100_1473378844.3 Bus2=100_1473378845.3 Switch=Y r1=1e-4 x1=1e-4 r0=1e-4 x0=1e-4 normamps=9999
New Line.1473391733 Phases=1 Bus1=100_1473391764.1 Bus2=100_1473391763.1 Switch=Y r1=1e-4 x1=1e-4 r0=1e-4 x0=1e-4 normamps=9999
New Line.1442067174 Phases=1 Bus1=100_1442067192.2 Bus2=100_1442067193.2 Switch=Y r1=1e-4 x1=1e-4 r0=1e-4 x0=1e-4 normamps=9999
New Line.1429906378 Phases=1 Bus1=100_1429906409.3 Bus2=100_1429906408.3 Switch=Y r1=1e-4 x1=1e-4 r0=1e-4 x0=1e-4 normamps=9999
New Line.1445553663 Phases=1 Bus1=node_1741865453.2 Bus2=node_1741865511.2 Switch=Y r1=1e-4 x1=1e-4 r0=1e-4 x0=1e-4 normamps=9999
New Line.1451350955 Phases=1 Bus1=node_1791607180.3 Bus2=node_1791607305.3 Switch=Y r1=1e-4 x1=1e-4 r0=1e-4 x0=1e-4 normamps=9999
New Line.346831932 Phases=1 Bus1=node_541588552.3 Bus2=node_541588553.3 Switch=Y r1=1e-4 x1=1e-4 r0=1e-4 x0=1e-4 normamps=9999
New Line.340790616 Phases=1 Bus1=node_534492005.1 Bus2=node_534492006.1 Switch=Y r1=1e-4 x1=1e-4 r0=1e-4 x0=1e-4 normamps=9999
New Line.347825680 Phases=1 Bus1=100_347825693.3 Bus2=100_347825694.3 Switch=Y r1=1e-4 x1=1e-4 r0=1e-4 x0=1e-4 normamps=9999
New Line.1438150980 Phases=1 Bus1=100_1438150998.2 Bus2=100_1438150999.2 Switch=Y r1=1e-4 x1=1e-4 r0=1e-4 x0=1e-4 normamps=9999
New Line.1414594063 Phases=1 Bus1=100_1414594093.1 Bus2=100_1414594094.1 Switch=Y r1=1e-4 x1=1e-4 r0=1e-4 x0=1e-4 normamps=9999
New Line.1447838077 Phases=1 Bus1=100_1447838107.1 Bus2=100_1447838108.1 Switch=Y r1=1e-4 x1=1e-4 r0=1e-4 x0=1e-4 normamps=9999
New Line.1473125410 Phases=1 Bus1=100_1473125440.3 Bus2=100_1473125441.3 Switch=Y r1=1e-4 x1=1e-4 r0=1e-4 x0=1e-4 normamps=9999
New Line.1473610768 Phases=1 Bus1=100_1473610787.2 Bus2=100_1473610786.2 Switch=Y r1=1e-4 x1=1e-4 r0=1e-4 x0=1e-4 normamps=9999
New Line.1463383054 Phases=1 Bus1=100_1463383072.2 Bus2=100_1463383073.2 Switch=Y r1=1e-4 x1=1e-4 r0=1e-4 x0=1e-4 normamps=9999
New Line.347887402 Phases=1 Bus1=100_347887416.3 Bus2=100_347887415.3 Switch=Y r1=1e-4 x1=1e-4 r0=1e-4 x0=1e-4 normamps=9999
New Line.1446623087 Phases=1 Bus1=100_1446623117.3 Bus2=100_1446623118.3 Switch=Y r1=1e-4 x1=1e-4 r0=1e-4 x0=1e-4 normamps=9999
New Line.347888734 Phases=1 Bus1=100_1569551814.1 Bus2=100_1569551815.1 Switch=Y r1=1e-4 x1=1e-4 r0=1e-4 x0=1e-4 normamps=9999
New Line.1477818831 Phases=1 Bus1=node_1785183417.2 Bus2=node_1785183497.2 Switch=Y r1=1e-4 x1=1e-4 r0=1e-4 x0=1e-4 normamps=9999
New Line.1446640177 Phases=3 Bus1=100_1446640183.1.2.3 Bus2=100_1446640182.1.2.3 Switch=Y r1=1e-4 x1=1e-4 r0=1e-4 x0=1e-4 normamps=9999
New Line.1464017867 Phases=1 Bus1=100_1464017898.3 Bus2=100_1464017897.3 Switch=Y r1=1e-4 x1=1e-4 r0=1e-4 x0=1e-4 normamps=9999
New Line.347826290 Phases=1 Bus1=100_347826303.2 Bus2=100_347826304.2 Switch=Y r1=1e-4 x1=1e-4 r0=1e-4 x0=1e-4 normamps=9999
New Line.347889650 Phases=1 Bus1=100_347889664.2 Bus2=100_347889663.2 Switch=Y r1=1e-4 x1=1e-4 r0=1e-4 x0=1e-4 normamps=9999
New Line.347826678 Phases=1 Bus1=100_347826692.3 Bus2=100_347826691.3 Switch=Y r1=1e-4 x1=1e-4 r0=1e-4 x0=1e-4 normamps=9999
New Line.347889680 Phases=1 Bus1=100_347889694.2 Bus2=100_347889693.2 Switch=Y r1=1e-4 x1=1e-4 r0=1e-4 x0=1e-4 normamps=9999
New Line.1394601141 Phases=1 Bus1=100_1394601172.1 Bus2=100_1394601171.1 Switch=Y r1=1e-4 x1=1e-4 r0=1e-4 x0=1e-4 normamps=9999
New Line.1446640170 Phases=3 Bus1=100_1446640183.1.2.3 Bus2=100_1446640182.1.2.3 Switch=Y r1=1e-4 x1=1e-4 r0=1e-4 x0=1e-4 normamps=9999
New Line.1441045004 Phases=1 Bus1=node_1737335273.1 Bus2=node_1737335404.1 Switch=Y r1=1e-4 x1=1e-4 r0=1e-4 x0=1e-4 normamps=9999
New Line.1401686157 Phases=1 Bus1=node_429473125.1 Bus2=node_1696903000.1 Switch=Y r1=1e-4 x1=1e-4 r0=1e-4 x0=1e-4 normamps=9999
New Line.1425419156 Phases=1 Bus1=node_1721980057.3 Bus2=node_1721980080.3 Switch=Y r1=1e-4 x1=1e-4 r0=1e-4 x0=1e-4 normamps=9999
New Line.1430924151 Phases=1 Bus1=node_1748633095.1 Bus2=node_1748633185.1 Switch=Y r1=1e-4 x1=1e-4 r0=1e-4 x0=1e-4 normamps=9999
New Line.339310046 Phases=3 Bus1=node_533584576.1.2.3 Bus2=node_533584577.1.2.3 Switch=Y r1=1e-4 x1=1e-4 r0=1e-4 x0=1e-4 normamps=9999
New Line.347887668 Phases=1 Bus1=100_347887682.1 Bus2=100_347887681.1 Switch=Y r1=1e-4 x1=1e-4 r0=1e-4 x0=1e-4 normamps=9999
New Line.1443535460 Phases=1 Bus1=100_1443535490.1 Bus2=100_1443535491.1 Switch=Y r1=1e-4 x1=1e-4 r0=1e-4 x0=1e-4 normamps=9999
New Line.1414521026 Phases=1 Bus1=node_1711876395.1 Bus2=node_1711876435.1 Switch=Y r1=1e-4 x1=1e-4 r0=1e-4 x0=1e-4 normamps=9999
New Line.1476590682 Phases=1 Bus1=node_1783804938.2 Bus2=node_1783804959.2 Switch=Y r1=1e-4 x1=1e-4 r0=1e-4 x0=1e-4 normamps=9999
New Line.1130313965 Phases=1 Bus1=node_1757097185.1 Bus2=node_1757097261.1 Switch=Y r1=1e-4 x1=1e-4 r0=1e-4 x0=1e-4 normamps=9999
New Line.1427007991 Phases=1 Bus1=node_1723526007.1 Bus2=node_1723526064.1 Switch=Y r1=1e-4 x1=1e-4 r0=1e-4 x0=1e-4 normamps=9999
New Line.1427755402 Phases=1 Bus1=100_1427755430.3 Bus2=100_1427755429.3 Switch=Y r1=1e-4 x1=1e-4 r0=1e-4 x0=1e-4 normamps=9999
New Line.1445536523 Phases=1 Bus1=node_1741852604.3 Bus2=node_1741852705.3 Switch=Y r1=1e-4 x1=1e-4 r0=1e-4 x0=1e-4 normamps=9999
New Line.1449079024 Phases=1 Bus1=100_1449079043.2 Bus2=100_1449079042.2 Switch=Y r1=1e-4 x1=1e-4 r0=1e-4 x0=1e-4 normamps=9999
New Line.1438095295 Phases=1 Bus1=100_1438095325.1 Bus2=100_1438095326.1 Switch=Y r1=1e-4 x1=1e-4 r0=1e-4 x0=1e-4 normamps=9999
New Line.1438133746 Phases=1 Bus1=100_1438133764.2 Bus2=100_1438133765.2 Switch=Y r1=1e-4 x1=1e-4 r0=1e-4 x0=1e-4 normamps=9999
New Line.347825560 Phases=1 Bus1=100_347825574.1 Bus2=100_347825573.1 Switch=Y r1=1e-4 x1=1e-4 r0=1e-4 x0=1e-4 normamps=9999
New Line.1445515250 Phases=1 Bus1=node_1741840233.1 Bus2=node_1741840259.1 Switch=Y r1=1e-4 x1=1e-4 r0=1e-4 x0=1e-4 normamps=9999
New Line.347887698 Phases=1 Bus1=100_347887712.2 Bus2=100_347887711.2 Switch=Y r1=1e-4 x1=1e-4 r0=1e-4 x0=1e-4 normamps=9999
New Line.347888232 Phases=1 Bus1=100_781650039.1 Bus2=100_781650038.1 Switch=Y r1=1e-4 x1=1e-4 r0=1e-4 x0=1e-4 normamps=9999
New Line.1440065940 Phases=1 Bus1=node_1736296101.3 Bus2=node_1736296175.3 Switch=Y r1=1e-4 x1=1e-4 r0=1e-4 x0=1e-4 normamps=9999
New Line.1432839233 Phases=1 Bus1=node_1755052501.2 Bus2=node_1755052534.2 Switch=Y r1=1e-4 x1=1e-4 r0=1e-4 x0=1e-4 normamps=9999
New Line.340790528 Phases=1 Bus1=node_534491741.2 Bus2=node_534491742.2 Switch=Y r1=1e-4 x1=1e-4 r0=1e-4 x0=1e-4 normamps=9999
...
